(Symbol 07_jj_rate_test_01);
($Id:$);
(PHYSICAL);
(RESOLUTION 1000);
9 07_jj_rate_test_01;
DS 0 1 1;
DF;
E
(ELECTRICAL);
(RESOLUTION 1000);
5 7102 (||2:-20000 14000||) (||1:-20000 8771||) (||1:-21000 5000||);
5 7101 tran 0.02p 100n;
5 11 X 0 subckt;
9 07_jj_rate_test_01;
DS 0 1 1;
(SymbolCall gnd);
5 10 0 0 -20000 20000;
1 Bound -21000 20000 -19000 22600;
( Rotate 180 );
9 gnd;
C 0 R -1 0 T -19000 21000;
(SymbolCall gnd);
5 10 0 0 -20000 -3000;
1 Bound -21000 -5600 -19000 -3000;
9 gnd;
C 0 T -21000 -4000;
(SymbolCall isrc);
5 2 pwl(0 0 1ns 40u 41ns 60u 91n 38u);
5 10 1 1 -20000 10000 I0_1;
5 10 0 0 -20000 20000 I0_0;
5 15 -20000 14000 0 -1 @<name>[c];
5 11 I 0;
5 5 nophys;
1 Bound -22000 10000 -18000 20000;
9 isrc;
C 0 T -22000 10000;
(SymbolCall jj);
5 10 2 2 -21000 5000 B0_2;
5 10 0 1 -20000 -3000 B0-;
5 10 1 0 -20000 7000 B0+;
5 11 B 0;
5 3 area=40;
5 1 jjSFQ1;
1 Bound -21500 -3000 -18500 7000;
9 jj;
C 0 T -21000 -3000;
L SCED;
5 10 1;
W2 0 -20000 10000 -20000 7000;
L NAME;
5 16 I 0 11;
94 <<I0>> -22250 18750 320 975 1000;
5 16 B 0 11;
94 <<B0>> -21750 2750 320 1275 1000;
L MODL;
5 16 B 0 1;
94 <<jjSFQ1>> -18250 3750 256 3300 1000;
L VALU;
5 16 I 0 2;
94 <<pwl(0 0 1ns 40u 41ns 60u 91n 38u)>> -17750 12250 33025 18300 1000;
L PARM;
5 16 B 0 3;
94 <<area=40>> -18250 1250 32768 4200 1000;
DF;
E
* Generated by Xic from cell 07_jj_rate_test_01
.tran 0.02p 100n
.plot tran @I0[c] v(1) v(2)
B0 1 0 2 jjSFQ1 area=40
I0 0 1 pwl(0 0 1ns 40u 41ns 60u 91n 38u)
.model jjSFQ1 jj(rtype=0, cct=1, vg=2.8m, icrit=1u, cap= 5f, vshunt=0.25mV)
.save @I0[c]
